/*--------------------------------*- C++ -*----------------------------------*\
| =========                 |                                                 |
| \\      /  F ield         | OpenFOAM Extend Project: Open source CFD        |
|  \\    /   O peration     | Version:  1.6-ext                               |
|   \\  /    A nd           | Web:      www.extend-project.de                 |
|    \\/     M anipulation  |                                                 |
\*---------------------------------------------------------------------------*/
FoamFile
{
    version     2.0;
    format      ascii;
    class       volScalarField;
    location    "0";
    object      k;
}
// * * * * * * * * * * * * * * * * * * * * * * * * * * * * * * * * * * * * * //

dimensions      [0 2 -2 0 0 0 0];

internalField   uniform 0.0038;

boundaryField
{
    box-1
    {
        type            symmetryPlane;
    }
    outlet
    {
        type            inletOutlet;
        inletValue      uniform 0.0038;
        value           uniform 0.0038;
    }
    inlet
    {
        type            fixedValue;
        value           uniform 0.0038;
    }
    box-4
    {
        type            symmetryPlane;
    }
    box-5
    {
        type            symmetryPlane;
    }
    box-6
    {
        type            symmetryPlane;
    }
    sphere
    {
        type            kqRWallFunction;
        value           uniform 0.0038;
    }
}


// ************************************************************************* //
