/*--------------------------------*- C++ -*----------------------------------*\
| =========                 |                                                 |
| \\      /  F ield         | OpenFOAM: The Open Source CFD Toolbox           |
|  \\    /   O peration     | Version:  1.5                                   |
|   \\  /    A nd           | Web:      http://www.openfoam.org               |
|    \\/     M anipulation  |                                                 |
\*---------------------------------------------------------------------------*/

FoamFile
{
    version         2.0;
    format          ascii;
    class           dictionary;
    object          optimiserDict;
}

// * * * * * * * * * * * * * * * * * * * * * * * * * * * * * * * * * * * * * //

objectiveFunction
{
    type paraboloidSin;

    p0    1;
    p1    2;
    p2   10;
    p3   20;
    p4   30;
}

simplex
{
    // Initialisation of simplex optimiser
    startPoint (5 7 0);
    lambda     (1 1 1);

    // Optimiser controls
    maxIter    100;
    tolerance  1e-3;
}


// ************************************************************************* //
