/*--------------------------------*- C++ -*----------------------------------*\
| =========                 |                                                 |
| \\      /  F ield         | OpenFOAM: The Open Source CFD Toolbox           |
|  \\    /   O peration     | Version:  2.0.1                                 |
|   \\  /    A nd           | Web:      www.OpenFOAM.com                      |
|    \\/     M anipulation  |                                                 |
\*---------------------------------------------------------------------------*/
FoamFile
{
    version     2.0;
    format      ascii;
    class       dictionary;
    location    "system";
    object      fvSchemes;
}
// * * * * * * * * * * * * * * * * * * * * * * * * * * * * * * * * * * * * * //

ddtSchemes
{
    default         Euler;
}

gradSchemes
{
    default         Gauss linear;
    grad(p)         Gauss linear;
    grad(U)         Gauss linear;
}

divSchemes
{
    default         none;
    div(rho*phi,U) Gauss upwind;
    div(rho*phi,T) Gauss upwind;
    div(phi,k)      Gauss limitedLinear 1;
    div(phi,omega) Gauss limitedLinear 1;
    div((nuEff*dev(T(grad(U))))) Gauss linear;
    
    div(rho*phi,C0) Gauss upwind;
    div(rho*phi,C1) Gauss upwind;
    div(rho*phi,C2) Gauss upwind;
}

laplacianSchemes
{
    default         none;
    laplacian(muEff,U) Gauss linear corrected;
    laplacian((rho*(1|A(U))),p) Gauss linear corrected;
    laplacian(DkEff,k) Gauss linear corrected;
    laplacian(DomegaEff,omega) Gauss linear corrected;
    laplacian(kappaEff,T) Gauss linear corrected;
    
    laplacian((rho*Ci),C0) Gauss linear corrected;
    laplacian((rho*Ci),C1) Gauss linear corrected;
    laplacian((rho*Ci),C2) Gauss linear corrected;
}

interpolationSchemes
{
    default         linear;
    interpolate(U)  linear;
}

snGradSchemes
{
    default         corrected;
}

fluxRequired
{
    default         no;
    p               ;
}


// ************************************************************************* //
