/*--------------------------------*- C++ -*----------------------------------*\
| =========                 |                                                 |
| \\      /  F ield         | OpenFOAM: The Open Source CFD Toolbox           |
|  \\    /   O peration     | Version:  1.0                                   |
|   \\  /    A nd           | Web:      http://www.openfoam.org               |
|    \\/     M anipulation  |                                                 |
\*---------------------------------------------------------------------------*/

FoamFile
{
    version         2.0;
    format          ascii;
    class           dictionary;
    object          optimiserDict;
}

// * * * * * * * * * * * * * * * * * * * * * * * * * * * * * * * * * * * * * //

objectiveFunction
{
    // Type of objective function
    type       shapeObjective;

    // Choice of flow model
    flowModel
    {
        type    turbFlow;
    }

    // Objective to be minimised
    objective
    {
        type  minPatchForce;

        U        U;
        p        p;
        rhoInf   1.205;
        patches ( sphere );
        useDirection on;
        direction (1 0 0);
    }

    // List of point parameters, where each direction is treated as
    // a separate degree of freedom
    pointParametrisation
    ();

    // Lists groups of points to be moved together.
    // Size of global parametrisation equals to the size of outer list
    lineParametrisation
    (
        (0 1 2 3)
        (4 5 6 7)
        (8)
    );

    maxIter   1000;
    objectiveTol 0.001;
    objectiveSpan 100;  // Sphere will shed

    // Where to save results of configurations
    configOffset   10000;
}


simplex
{
    // Initialisation of simplex optimiser
    startPoint (0.2 0.2 0.2);
    lambda (0.5 0.5 0.5);

    // Optimiser controls
    maxIter  80;
    tolerance 0.01;
}


// ************************************************************************* //
