/*--------------------------------*- C++ -*----------------------------------*\
| =========                 |                                                 |
| \\      /  F ield         | OpenFOAM: The Open Source CFD Toolbox           |
|  \\    /   O peration     | Version:  1.3                                   |
|   \\  /    A nd           | Web:      http://www.openfoam.org               |
|    \\/     M anipulation  |                                                 |
\*---------------------------------------------------------------------------*/

FoamFile
{
    version         2.0;
    format          ascii;
    class           dictionary;
    object          controlDict;
}

// * * * * * * * * * * * * * * * * * * * * * * * * * * * * * * * * * * * * * //

startFrom       startTime;

startTime       0;

stopAt          endTime;

endTime         2000;

deltaT          1;

writeControl    timeStep;

writeInterval   50;

purgeWrite      0;

writeFormat     ascii;

writePrecision  6;

writeCompression uncompressed;

timeFormat      general;

timePrecision   6;

graphFormat     raw;

runTimeModifiable yes;

libs ("libHSLUCompressible.so");

functions
(
    flux
    {
        type        divFlux;
        phiName     phi;
    }

    Mach
    {
        type        MachNumber;
        UName       U;
    }

    minMaxU
    {
        type        minMaxField;

        // Where to load it from (if not already in solver)
        functionObjectLibs ("libsampling.so");

        name U;
    }

    minMaxP
    {
        type        minMaxField;

        // Where to load it from (if not already in solver)
        functionObjectLibs ("libsampling.so");

        name p;
    }

    minMaxRho
    {
        type        minMaxField;

        // Where to load it from (if not already in solver)
        functionObjectLibs ("libsampling.so");

        name rho;
    }

    minMaxT
    {
        type        minMaxField;

        // Where to load it from (if not already in solver)
        functionObjectLibs ("libsampling.so");

        name T;
    }
);


// ************************************************************************* //
