/*-------------------------------*- C++ -*---------------------------------*\
|    =========                                                              |
|    \\      /     OpenFOAM                                                 |
|     \\    /                                                               |
|      \\  /       The Open Source CFD Toolbox                              |
|       \\/                                        http://www.OpenFOAM.org  |
\*-------------------------------------------------------------------------*/
FoamFile
{
    version     2.0;
    format      ascii;
    class       dictionary;
    note        "mesh decomposition control dictionary";
    location    "system";
    object      decomposeParDict;
}

// * * * * * * * * * * * * * * * * * * * * * * * * * * * * * * * * * * * * * //

numberOfSubdomains  7;

method          metis;

metisCoeffs
{
    processorWeights 7 {1};
}


// ************************************************************************* //
