/*--------------------------------*- C++ -*----------------------------------*\
| =========                 |                                                 |
| \\      /  F ield         | OpenFOAM: The Open Source CFD Toolbox           |
|  \\    /   O peration     | Version:  1.7.1                                 |
|   \\  /    A nd           | Web:      www.OpenFOAM.com                      |
|    \\/     M anipulation  |                                                 |
\*---------------------------------------------------------------------------*/
FoamFile
{
    version     2.0;
    format      ascii;
    class       dictionary;
    object      blockMeshDict;
}
// * * * * * * * * * * * * * * * * * * * * * * * * * * * * * * * * * * * * * //

convertToMeters 1.0;

vertices
(
    (0.0 0.0 0.0)
    (0.1 0.0 0.0)
    (0.1 0.1 0.0)
    (0.0 0.1 0.0)
    (0.0 0.0 1.0)
    (0.1 0.0 1.0)
    (0.1 0.1 1.0)
    (0.0 0.1 1.0)
);

blocks
(
    hex (0 1 2 3 4 5 6 7) (1 1 100) simpleGrading (1 1 1)
);

edges
(
);

patches
(
    empty walls
    (
        (3 7 6 2)
        (0 4 7 3)
        (2 6 5 1)
        (1 5 4 0)
    )
//    cyclic in-out
//    (
//        (0 3 2 1)
//        (4 5 6 7)
//    )
    wall inlet
    (
        (0 3 2 1)
    )
    wall outlet
    (
        (4 5 6 7)
    )
);

mergePatchPairs 
(
);

// ************************************************************************* //
